1010
C40 H26 N2 O4
 O    1.352810   18.114563    5.189979
 O    1.689216   14.335438    4.164705
 O    0.841729    1.889561    8.842048
 O    2.200297   30.560438    0.512637
 O    1.995870   21.210943    8.430441
 O    1.046156   11.239058    0.924243
 O    0.198669    4.985944    5.601585
 O    2.843357   27.464058    3.753100
 N    1.619006   19.632252    6.847629
 N    1.423020   12.817750    2.507055
 N    0.575533    3.407251    7.184397
 N    2.466493   29.042749    2.170287
 C   -0.003116   15.804124    8.147929
 C    3.045141   16.645876    1.206754
 C    2.197654   32.029125    5.884096
 C    0.844371    0.420877    3.470588
 C   -0.271052   17.082005    8.719501
 C    3.313078   15.367996    0.635183
 C    2.465591    0.857004    5.312525
 C    0.576435   31.592997    4.042160
 C    2.081859   17.528193    0.551926
 C    0.960167   14.921808    8.802757
 C    1.807654    1.303190    4.125415
 C    1.234372   31.146809    5.229269
 C    1.794771   18.810940    1.025273
 C    1.247255   13.639060    8.329411
 C    2.094742    2.585940    3.652069
 C    0.947284   29.864061    5.702615
 C    0.884738   19.635820    0.392897
 C    2.157288   12.814181    8.961786
 C    3.004775    3.410817    4.284445
 C    0.037250   29.039181    5.070239
 C   -1.487517   19.217865    8.630631
 C    4.529543   13.232136    0.724053
 C    3.682056    2.992866    5.401395
 C   -0.640030   29.457136    3.953290
 C   -1.214683   17.941280    8.084318
 C    4.256709   14.508719    1.270366
 C    3.409222    1.716283    5.947708
 C   -0.367196   30.733721    3.406976
 C    2.871720   17.523325    6.903757
 C    0.170306   14.926677    2.450927
 C   -0.677181    1.298324    7.128269
 C    3.719207   31.151676    2.226414
 C    3.155380   16.293144    6.363056
 C   -0.113354   16.156857    2.991628
 C   -0.960841    0.068145    7.668970
 C    4.002867   32.381855    1.685714
 C   -0.659297   15.451392    6.972046
 C    3.701322   16.998610    2.382638
 C    2.853835   31.676392    7.059980
 C    0.188190    0.773608    2.294704
 C    1.897582   18.408886    6.233026
 C    1.144444   14.041115    3.121658
 C    0.296957    2.183888    7.799000
 C    2.745069   30.266115    1.555684
 C    2.257839   20.116079    7.996384
 C    0.784187   12.333920    1.358300
 C   -0.063300    3.891080    6.035642
 C    3.105326   28.558922    3.319042
 C    0.645341   20.524626    6.176898
 C    2.396685   11.925376    3.177786
 C    1.549198    4.299623    7.855128
 C    1.492828   28.150375    1.499556
 C    1.318443   21.400776    5.160043
 C    1.723583   11.049225    4.194641
 C    0.876095    5.175775    8.871983
 C    2.165931   27.274225    0.482702
 C    0.304259   22.173086    4.344315
 C    2.737767   10.276915    5.010369
 C    3.585254    5.948086    0.333027
 C   -0.543228   26.501915    9.021657
 C   -0.283397   21.614946    3.245140
 C    3.325423   10.835054    6.109544
 C    4.172910    5.389946    1.432202
 C   -1.130885   27.060055    7.922482
 C    3.599102   22.322355    2.489281
 C   -0.557077   10.127645    6.865403
 C    0.290410    6.097357    2.188061
 C    2.751616   26.352646    7.166623
 C    3.251998   23.600885    2.836340
 C   -0.209973    8.849115    6.518343
 C    0.637514    7.375883    1.841002
 C    2.404511   25.074116    7.513682
 C    3.780812   24.155781    3.943935
 C   -0.738786    8.294219    5.410749
 C    0.108701    7.930781    0.733407
 C    2.933325   24.519220    8.621277
 C   -0.080102   23.445126    4.703535
 C    3.122128    9.004874    4.651149
 C    2.274641    7.220128    9.328491
 C    0.767385   25.229876    0.026193
 H    2.238294   19.122786    1.803584
 H    0.803732   13.327216    7.551100
 H    1.651219    2.897782    2.873759
 H    1.390807   29.552216    6.480926
 H    0.723664   20.505156    0.738084
 H    2.318362   11.944845    8.616599
 H    3.165849    4.280158    3.939258
 H   -0.123824   28.169846    5.415426
 H    2.718393   16.014074    5.566972
 H    0.323633   16.435926    3.787712
 H   -0.523854   32.239075    8.465054
 H    3.565880    0.210925    0.889630
 H   -0.470426   14.608990    6.575407
 H    3.512452   17.841011    2.779277
 H    2.664965   30.833990    7.456619
 H    0.377061    1.616010    1.898065
 H   -0.009908   19.992445    5.740969
 H    3.051934   12.457555    3.613715
 H    2.204447    3.767447    8.291057
 H    0.837579   28.682556    1.063627
 H    0.225928   21.073030    6.828919
 H    2.816098   11.376970    2.525764
 H    1.968611    4.848030    7.203106
 H    1.073415   27.601971    2.151577
 H    1.886223   22.014080    5.608133
 H    1.155803   10.435921    3.746551
 H    0.308316    5.789082    8.423893
 H    2.733710   26.660921    0.930790
 H    1.835381   20.855616    4.576311
 H    1.206645   11.594385    4.778373
 H    2.054132    4.630614    0.101031
 H    0.987894   27.819386    9.253654
 H   -0.084263   20.712835    3.014079
 H    3.126289   11.737165    6.340605
 H    3.973776    4.487833    1.663263
 H   -0.931750   27.962166    7.691421
 H    3.228124   21.932955    1.705359
 H   -0.186099   10.517046    7.649325
 H    0.661389    5.707954    2.971983
 H    2.380637   26.742046    6.382700
 H    2.645981   24.097372    2.301252
 H    0.396045    8.352630    7.053432
 H    1.243532    7.872369    2.376090
 H    1.798494   24.577629    6.978594
 H    3.542726   25.041666    4.196511
 H   -0.500700    7.408334    5.158173
 H    0.346787    8.816666    0.480831
 H    2.695239   23.633335    8.873853
 H    0.281028   23.834526    5.492135
 H    2.760997    8.615476    3.862549
 H    1.913510    7.609523    8.539890
 H    1.128516   24.840475    0.814793
 C    2.465591   33.307003    5.312525
 C    0.576435   -0.857004    4.042160
 C    0.386884   17.528193    9.906610
 C    2.655141   14.921808   -0.551927
 C    2.197654   -0.420876    5.884096
 C    0.844371   32.870876    3.470588
 C    1.423922   17.082005   -0.635183
 C    1.618104   15.367996    9.989867
 C    0.207457   19.217865   -0.724052
 C    2.834569   13.232136   10.078736
 C   -2.479161   20.116079    7.996384
 C   -0.810237   19.635820    9.747581
 C    3.852262   12.814181   -0.392898
 C    5.521187   12.333920    1.358300
 C    4.673700    3.891080    6.035642
 C   -1.631674   28.558922    3.319042
 C   -1.865280   17.523325    6.903757
 C    4.907306   14.926677    2.450927
 C    4.059819    1.298324    7.128269
 C   -1.017793   31.151676    2.226414
 C    3.522317   17.941280    8.084318
 C   -0.480291   14.508719    1.270366
 C   -1.327778    1.716283    5.947708
 C    4.369804   30.733721    3.406976
 C    4.077703   15.451392    6.972046
 C   -1.035678   16.998610    2.382638
 C   -1.883165   -0.773609    7.059980
 H   -0.523854   -0.210926    8.465054
 H    3.565880   32.660927    0.889630
 C    4.925190   33.223610    2.294704
 C   -1.581620   16.293144    6.363056
 C    4.623646   16.156857    2.991628
 C    3.776159   32.518147    7.668970
 C   -0.734133   -0.068146    1.685714
 C    3.249483   19.217865    8.630631
 C   -0.207457   13.232136    0.724053
 C   -1.054944    2.992866    5.401395
 C    4.096970   29.457136    3.953290
 H    0.359158    4.630614    9.455714
 C    1.890280    5.948086    9.687711
 C    1.151746   26.501915   -0.333027
 H    2.682868   27.819386   -0.101030
 C    2.571070    5.175775   -0.482701
 C    3.969615    7.220128   -0.026193
 C   -0.927589   25.229876    9.380877
 C    0.470956   27.274225    9.837385
 C   -1.137897   22.322355    2.489281
 C    4.179924   10.127645    6.865403
 C    5.027411    6.097357    2.188061
 C   -1.985384   26.352646    7.166623
 C    4.453603   21.614946    3.245140
 C   -1.411577   10.835054    6.109544
 C   -0.564090    5.389946    1.432202
 C    3.606115   27.060055    7.922482
 C    4.656898   23.445126    4.703535
 C   -1.614872    9.004874    4.651149
 C   -0.767385    7.220128   -0.026193
 C    3.809411   25.229876    9.380877
 C   -0.956188   24.155781    3.943935
 C    3.998214    8.294219    5.410749
 C    3.150727    7.930781   10.088091
 C   -0.108701   24.519220   -0.733407
 C    1.807654   33.753189    4.125415
 C    3.409222   34.166283    5.947708
 C   -0.367196   -1.716280    3.406976
 C    1.234372   -1.303192    5.229269
 C    0.099796   18.810940   10.379957
 C    1.350167   16.645876   10.561439
 C    1.691859   15.804124   -1.206755
 C    2.942229   13.639060   -1.025273
 C    2.853835   -0.773609    7.059980
 C    0.188190   33.223610    2.294704
 C    0.480291   17.941280   -1.270366
 C    2.561735   14.508719   10.625050
 C   -0.784187   20.116079   -1.358300
 C    3.826213   12.333920   10.712984
 N   -3.117994   19.632252    6.847629
 O   -2.741130   21.210943    8.430441
 H   -0.971311   20.505156   10.092769
 H    4.013336   11.944845   -0.738085
 O    5.783156   11.239058    0.924243
 N    6.160020   12.817750    2.507055
 O    4.935669    4.985944    5.601585
 N    5.312533    3.407251    7.184397
 N   -2.270507   29.042749    2.170287
 O   -1.893643   27.464058    3.753100
 C   -2.839418   18.408886    6.233026
 C    5.881444   14.041115    3.121658
 C    3.776159    0.068145    7.668970
 C    5.033957    2.183888    7.799000
 C   -1.991931   30.266115    1.555684
 C   -0.734133   32.381855    1.685714
 C    4.465948   17.082005    8.719501
 C   -1.423922   15.367996    0.635183
 C   -2.271409    0.857004    5.312525
 C    5.313435   31.592997    4.042160
 H    4.266574   14.608990    6.575407
 C    4.733884   15.804124    8.147929
 C   -1.691859   16.645876    1.206754
 H   -1.224548   17.841011    2.779277
 C   -2.539346   -0.420876    5.884096
 H   -2.072035   -1.616011    7.456619
 C    5.581371   32.870876    3.470588
 H    5.114061   34.066010    1.898065
 H   -2.018607   16.014074    5.566972
 H    5.060633   16.435926    3.787712
 H    4.213146   32.239075    8.465054
 C    4.059819   33.748325    7.128269
 C   -1.017793   -1.298325    2.226414
 H   -1.171120    0.210925    0.889630
 C    3.926764   19.635820    9.747581
 C   -0.884738   12.814181   -0.392898
 C   -1.732225    3.410817    4.284445
 C    4.774251   29.039181    5.070239
 C    2.477936    5.389946   10.786886
 C    0.564090   27.060055   -1.432202
 C    3.244172    4.299623   -1.499556
 H    2.003290    5.789082   -0.930791
 H    3.608484    7.609523   -0.814794
 C    4.845701    7.930781    0.733407
 C   -1.803675   24.519220    8.621277
 H   -0.566459   24.840475   10.169477
 H    1.038736   26.660921   10.285475
 C   -0.202146   28.150375   10.854239
 H   -1.508876   21.932955    1.705359
 C   -1.485002   23.600885    2.836340
 C    4.527027    8.849115    6.518343
 H    4.550901   10.517046    7.649325
 H    5.398389    5.707954    2.971983
 C    5.374514    7.375883    1.841002
 C   -2.332489   25.074116    7.513682
 H   -2.356363   26.742046    6.382700
 H    4.652737   20.712835    3.014079
 C    5.041259   22.173086    4.344315
 C   -1.999233   10.276915    5.010369
 H   -1.610711   11.737165    6.340605
 H   -0.763224    4.487833    1.663263
 C   -1.151746    5.948086    0.333027
 C    4.193772   26.501915    9.021657
 H    3.805250   27.962166    7.691421
 H    5.018028   23.834526    5.492135
 H   -1.976003    8.615476    3.862549
 H   -1.128516    7.609523   -0.814794
 H    4.170541   24.840475   10.169477
 H   -1.194274   25.041666    4.196511
 H    4.236300    7.408334    5.158173
 C    3.679540    7.375883   11.195685
 H    3.388813    8.816666    9.835515
 C   -0.637514   25.074116   -1.841002
 H   -0.346787   23.633335   -0.480831
 C    2.094742   35.035942    3.652069
 C    3.682056   35.442867    5.401395
 C   -0.640030   -2.992865    3.953290
 C    0.947284   -2.585939    5.702615
 H    0.543320   19.122786   11.158267
 C    2.006348   16.998610   11.737322
 C    1.035677   15.451392   -2.382638
 H    2.498706   13.327216   -1.803584
 H    2.664965   -1.616011    7.456619
 H    0.377061   34.066010    1.898065
 C   -0.170306   17.523325   -2.450927
 C    3.212332   14.926677   11.805612
 N   -1.423020   19.632252   -2.507055
 O   -1.046156   21.210943   -0.924243
 O    4.088181   11.239058   10.278927
 N    4.465046   12.817750   11.861739
 C   -4.091659   20.524626    6.176898
 C    7.133685   11.925376    3.177786
 C    6.286198    4.299623    7.855128
 C   -3.244172   28.150375    1.499556
 O   -3.384190   18.114563    5.189979
 O    6.426216   14.335438    4.164705
 H    4.213146   -0.210926    8.465054
 O    5.578729    1.889561    8.842048
 O   -2.536703   30.560438    0.512637
 H   -1.171120   32.660927    0.889630
 C    5.123884   17.528193    9.906610
 C   -2.081859   14.921808   -0.551927
 C   -2.929346    1.303190    4.125415
 C    5.971372   31.146809    5.229269
 C    5.697167   14.921808    8.802757
 C   -2.655141   17.528193    0.551926
 C   -3.502628   -1.303192    5.229269
 C    6.544654   33.753189    4.125415
 C    5.033957   34.633888    7.799000
 C   -1.991931   -2.183886    1.555684
 H    3.765689   20.505156   10.092769
 C    4.836796   18.810940   10.379957
 C   -1.794771   13.639060   -1.025273
 H   -0.723664   11.944845   -0.738085
 C   -2.642258    2.585940    3.652069
 H   -1.571151    4.280158    3.939258
 H    4.613176   28.169846    5.415426
 C    5.684283   29.864061    5.702615
 H    2.278802    4.487833   11.017946
 C    3.332436    6.097357   11.542745
 C   -0.290410   26.352646   -2.188061
 H    0.763224   27.962166   -1.663263
 N    2.270507    3.407251   -2.170287
 H    3.899421    3.767447   -1.063627
 H    3.663585    4.848030   -2.151577
 H    5.083787    8.816666    0.480831
 H   -2.041761   23.633335    8.873853
 H   -0.621559   27.601971   11.506262
 H   -0.857395   28.682556   10.418310
 N    0.771519   29.042749   11.524971
 H   -2.091019   24.097372    2.301252
 H    5.133045    8.352630    7.053432
 H    5.980532    7.872369    2.376090
 H   -2.938507   24.577629    6.978594
 C    6.055443   21.400776    5.160043
 C   -3.013417   11.049225    4.194641
 C   -2.165930    5.175775   -0.482701
 C    5.207956   27.274225    9.837385
 H    4.285558    7.872369   11.730774
 H   -1.243532   24.577629   -2.376090
 H    1.651219   35.347782    2.873759
 C    3.004775   35.860817    4.284445
 C    4.673700   36.341080    6.035642
 C   -1.631674   -3.891079    3.319042
 C    0.037250   -3.410820    5.070239
 H    1.390807   -2.897785    6.480926
 H    1.817478   17.841011   12.133961
 C    2.928672   16.156857   12.346312
 C    0.113354   16.293144   -2.991628
 H    1.224548   14.608990   -2.779277
 C   -1.144444   18.408886   -3.121658
 C    4.186470   14.041115   12.476342
 C   -2.396685   20.524626   -3.177786
 C    5.438710   11.925376   12.532470
 H   -4.746908   19.992445    5.740969
 H   -4.511072   21.073030    6.828919
 C   -3.418557   21.400776    5.160043
 C    6.460583   11.049225    4.194641
 H    7.553098   11.376970    2.525764
 H    7.788934   12.457555    3.613715
 C    5.613095    5.175775    8.871983
 H    6.941447    3.767447    8.291057
 H    6.705611    4.848030    7.203106
 H   -3.663585   27.601971    2.151577
 H   -3.899421   28.682556    1.063627
 C   -2.571069   27.274225    0.482702
 C    6.087167   16.645876   10.561439
 C   -3.045141   15.804124   -1.206755
 C   -3.892628    0.420877    3.470588
 C    6.934654   32.029125    5.884096
 C    5.984255   13.639060    8.329411
 C    6.355104   15.367996    9.989867
 C   -3.313078   17.082005   -0.635183
 C   -2.942229   18.810940    1.025273
 C   -4.160565   -0.857004    4.042160
 C   -3.789716   -2.585939    5.702615
 C    6.831742   35.035942    3.652069
 C    7.202591   33.307003    5.312525
 O    5.578729   34.339561    8.842048
 N    5.312533   35.857250    7.184397
 N   -2.270507   -3.407251    2.170287
 O   -2.536703   -1.889563    0.512637
 H    5.280320   19.122786   11.158267
 H   -2.238294   13.327216   -1.803584
 H   -3.085782    2.897782    2.873759
 H    6.127807   29.552216    6.480926
 H    3.703414    5.707954   12.326667
 H   -0.661388   26.742046   -2.971983
 C    1.631674    3.891080   -3.319042
 C    1.991931    2.183888   -1.555684
 C    1.050094   30.266115   10.910368
 C    1.410352   28.558922   12.673725
 H    6.572381   20.855616    4.576311
 C    5.382341   20.524626    6.176898
 H    6.623223   22.014080    5.608133
 H   -3.581197   10.435921    3.746551
 C   -2.340315   11.925376    3.177786
 H   -3.530355   11.594385    4.778373
 C   -1.492828    4.299623   -1.499556
 H   -2.682868    4.630614    0.101031
 H   -2.733710    5.789082   -0.930791
 H    5.775736   26.660921   10.285475
 H    5.724894   27.819386    9.253654
 C    4.534854   28.150375   10.854239
 H    3.165849   36.730160    3.939258
 O    4.935669   37.435944    5.601585
 O   -1.893643   -4.985943    3.753100
 H   -0.123824   -4.280155    5.415426
 H    3.365659   16.435926   13.142395
 H   -0.323633   16.014074   -3.787712
 O   -1.689216   18.114563   -4.164705
 O    4.731242   14.335438   13.519389
 H   -3.051934   19.992445   -3.613715
 H   -2.816098   21.073030   -2.525764
 C   -1.723583   21.400776   -4.194641
 C    4.765608   11.049225   13.549324
 H    5.858124   11.376970   11.880448
 H    6.093960   12.457555   12.968399
 C   -4.432741   22.173086    4.344315
 H   -2.901619   20.855616    4.576311
 H   -2.850777   22.014080    5.608133
 H    5.892803   10.435921    3.746551
 H    5.943645   11.594385    4.778373
 C    7.474767   10.276915    5.010369
 H    5.096158    4.630614    9.455714
 H    5.045316    5.789082    8.423893
 C    6.627280    5.948086    9.687711
 C   -3.585254   26.501915   -0.333027
 H   -2.003290   26.660921    0.930790
 H   -2.054132   27.819386   -0.101030
 C    6.743348   16.998610   11.737322
 C   -3.701323   15.451392   -2.382638
 C   -4.548810    0.773608    2.294704
 C    7.590836   31.676392    7.059980
 H    5.540731   13.327216    7.551100
 C    6.894288   12.814181    8.961786
 C    7.298735   14.508719   10.625050
 C   -4.256709   17.941280   -1.270366
 C   -3.852262   19.635820    0.392897
 H   -2.498706   19.122786    1.803584
 C   -5.104196   -1.716280    3.406976
 C   -4.699749   -3.410820    5.070239
 H   -3.346193   -2.897785    6.480926
 H    6.388218   35.347782    2.873759
 C    7.741776   35.860817    4.284445
 C    8.146222   34.166283    5.947708
 C    6.286198   36.749622    7.855128
 C   -3.244172   -4.299625    1.499556
 C    0.640030    2.992866   -3.953289
 O    1.893643    4.985944   -3.753099
 C    1.017793    1.298324   -2.226415
 O    2.536703    1.889561   -0.512636
 O    0.505323   30.560438    9.867321
 C    2.024233   31.151676   11.581098
 O    1.148383   27.464058   13.107783
 C    2.401995   29.457136   13.307974
 H    4.727092   19.992445    5.740969
 H    4.962928   21.073030    6.828919
 N    6.356006   19.632252    6.847629
 N   -3.313980   12.817750    2.507055
 H   -1.920902   11.376970    2.525764
 H   -1.685066   12.457555    3.613715
 N   -2.466493    3.407251   -2.170287
 H   -0.837579    3.767447   -1.063627
 H   -1.073415    4.848030   -2.151577
 H    4.115441   27.601971   11.506262
 H    3.879605   28.682556   10.418310
 N    5.508519   29.042749   11.524971
 C   -2.737767   22.173086   -5.010369
 H   -1.206645   20.855616   -4.778373
 H   -1.155803   22.014080   -3.746551
 H    4.197829   10.435921   13.101234
 H    4.248671   11.594385   14.133057
 C    5.779793   10.276915   14.365053
 C   -5.020397   21.614946    3.245140
 C   -4.817102   23.445126    4.703535
 C    7.859128    9.004874    4.651149
 C    8.062423   10.835054    6.109544
 C    7.214936    5.389946   10.786886
 C    7.011641    7.220128    9.328491
 C   -3.969615   25.229876    0.026193
 C   -4.172910   27.060055   -1.432202
 H    6.554478   17.841011   12.133961
 C    7.665672   16.156857   12.346312
 C   -4.623646   16.293144   -2.991628
 H   -3.512452   14.608990   -2.779277
 C   -5.471133   -0.068146    1.685714
 H   -4.359939    1.616010    1.898065
 H    7.401965   30.833990    7.456619
 C    8.513159   32.518147    7.668970
 H    7.055362   11.944845    8.616599
 C    7.571568   13.232136   10.078736
 C    7.949332   14.926677   11.805612
 C   -4.907306   17.523325   -2.450927
 C   -4.529543   19.217865   -0.724052
 H   -4.013337   20.505156    0.738084
 C   -5.754793   -1.298325    2.226414
 C   -5.377030   -2.992865    3.953290
 H   -4.860824   -4.280155    5.415426
 C    8.419056   35.442867    5.401395
 H    7.902849   36.730160    3.939258
 C    8.796819   33.748325    7.128269
 C    5.613095   37.625774    8.871983
 H    6.941447   36.217449    8.291057
 H    6.705611   37.298031    7.203106
 H   -3.663585   -4.848030    2.151577
 H   -3.899421   -3.767445    1.063627
 C   -2.571069   -5.175776    0.482702
 C    0.367196    1.716283   -3.406976
 C   -0.037251    3.410817   -5.070239
 C    0.734133    0.068145   -1.685714
 C    2.307893   32.381855   11.040398
 C    2.674830   30.733721   12.761660
 C    3.079276   29.039181   14.424923
 C    6.634582   18.408886    6.233026
 C    6.994839   20.116079    7.996384
 C   -3.952813   12.333920    1.358300
 C   -3.592556   14.041115    3.121658
 C   -3.105326    3.891080   -3.319042
 C   -2.745069    2.183888   -1.555684
 C    5.787094   30.266115   10.910368
 C    6.147352   28.558922   12.673725
 C   -3.325423   21.614946   -6.109544
 C   -3.122128   23.445126   -4.651149
 C    6.164154    9.004874   14.005833
 C    6.367449   10.835054   15.464228
 C   -5.874897   22.322355    2.489281
 H   -4.821263   20.712835    3.014079
 C   -5.693188   24.155781    3.943935
 H   -4.455972   23.834526    5.492135
 H    7.497997    8.615476    3.862549
 C    8.735214    8.294219    5.410749
 H    7.863289   11.737165    6.340605
 C    8.916924   10.127645    6.865403
 H    7.015801    4.487833   11.017946
 C    8.069436    6.097357   11.542745
 H    6.650510    7.609523    8.539890
 C    7.887727    7.930781   10.088091
 C   -4.845701   24.519220   -0.733407
 H   -3.608484   24.840475    0.814793
 C   -5.027411   26.352646   -2.188061
 H   -3.973776   27.962166   -1.663263
 H    8.102659   16.435926   13.142395
 H   -5.060634   16.014074   -3.787712
 H   -5.908120    0.210925    0.889630
 H    8.950147   32.239075    8.465054
 C    8.563213   12.333920   10.712984
 C    8.923470   14.041115   12.476342
 C   -5.881444   18.408886   -3.121658
 C   -5.521187   20.116079   -1.358300
 C   -6.728931   -2.183886    1.555684
 C   -6.368674   -3.891079    3.319042
 C    9.410700   36.341080    6.035642
 C    9.770957   34.633888    7.799000
 H    5.096158   37.080616    9.455714
 H    5.045316   38.239082    8.423893
 C    6.627280   38.398087    9.687711
 C   -3.585254   -5.948086   -0.333027
 H   -2.003290   -5.789080    0.930790
 H   -2.054132   -4.630615   -0.101030
 C   -0.576435    0.857004   -4.042159
 C   -0.947284    2.585940   -5.702615
 H    0.123823    4.280158   -5.415426
 C   -0.188190   -0.773609   -2.294704
 H    1.171120   -0.210926   -0.889630
 H    1.870906   32.660927   10.244313
 C    3.230216   33.223610   11.649388
 C    3.618460   31.592997   13.396843
 H    2.918202   28.169846   14.770110
 C    3.989309   29.864061   15.057299
 O    6.089810   18.114563    5.189979
 C    7.608720   17.523325    6.903757
 O    6.732870   21.210943    8.430441
 C    7.986483   19.217865    8.630631
 C   -4.944457   13.232136    0.724053
 O   -3.690844   11.239058    0.924243
 C   -4.566694   14.926677    2.450927
 O   -3.047784   14.335438    4.164705
 C   -4.096970    2.992866   -3.953289
 O   -2.843357    4.985944   -3.753099
 C   -3.719207    1.298324   -2.226415
 O   -2.200297    1.889561   -0.512636
 O    5.242323   30.560438    9.867321
 C    6.761233   31.151676   11.581098
 O    5.885383   27.464058   13.107783
 C    7.138996   29.457136   13.307974
 C   -4.179924   22.322355   -6.865403
 H   -3.126289   20.712835   -6.340605
 C   -3.998214   24.155781   -5.410749
 H   -2.760997   23.834526   -3.862549
 H    5.803023    8.615476   13.217233
 C    7.040240    8.294219   14.765433
 H    6.168314   11.737165   15.695289
 C    7.221950   10.127645   16.220087
 H   -6.245875   21.932955    1.705359
 C   -6.222002   23.600885    2.836340
 H   -5.931274   25.041666    4.196511
 H    8.973300    7.408334    5.158173
 C    9.264028    8.849115    6.518343
 H    9.287902   10.517046    7.649325
 H    8.440414    5.707954   12.326667
 C    8.416540    7.375883   11.195685
 H    8.125813    8.816666    9.835515
 C   -5.374515   25.074116   -1.841002
 H   -5.083787   23.633335   -0.480831
 H   -5.398389   26.742046   -2.971983
 O    8.825182   11.239058   10.278927
 N    9.202046   12.817750   11.861739
 O    9.468242   14.335438   13.519389
 O   -6.426216   18.114563   -4.164705
 N   -6.160020   19.632252   -2.507055
 O   -5.783156   21.210943   -0.924243
 N   -7.007507   -3.407251    2.170287
 O   -7.273703   -1.889563    0.512637
 O   -6.630643   -4.985943    3.753100
 O    9.672668   37.435944    5.601585
 N   10.049533   35.857250    7.184397
 O   10.315729   34.339561    8.842048
 C    7.214936   37.839947   10.786886
 C    7.011641   39.670128    9.328491
 C   -3.969615   -7.220125    0.026193
 C   -4.172910   -5.389946   -1.432202
 C   -1.234372    1.303190   -5.229269
 C   -0.844372   -0.420876   -3.470588
 H   -1.390807    2.897782   -6.480926
 H   -0.377061   -1.616011   -1.898065
 C    3.886397   32.870876   12.825272
 H    3.419087   34.066010   11.252748
 C    4.276397   31.146809   14.583952
 H    4.432833   29.552216   15.835609
 C    7.892380   16.293144    6.363056
 C    8.259317   17.941280    8.084318
 C    8.663764   19.635820    9.747581
 C   -5.621738   12.814181   -0.392898
 C   -5.217291   14.508719    1.270366
 C   -4.850354   16.156857    2.991628
 C   -4.369804    1.716283   -3.406976
 C   -4.774251    3.410817   -5.070239
 C   -4.002867    0.068145   -1.685714
 C    7.044893   32.381855   11.040398
 C    7.411830   30.733721   12.761660
 C    7.816277   29.039181   14.424923
 H   -4.550901   21.932955   -7.649325
 C   -4.527028   23.600885   -6.518344
 H   -4.236300   25.041666   -5.158173
 H    7.278326    7.408334   14.512856
 C    7.569053    8.849115   15.873028
 H    7.592927   10.517046   17.004009
 H   -6.828019   24.097372    2.301252
 H    9.870046    8.352630    7.053432
 H    9.022558    7.872369   11.730774
 H   -5.980533   24.577629   -2.376090
 C   10.175711   11.925376   12.532470
 C   -7.133685   20.524626   -3.177786
 C   -7.981172   -4.299625    1.499556
 C   11.023197   36.749622    7.855128
 H    7.015801   36.937836   11.017946
 C    8.069436   38.547359   11.542745
 H    6.650510   40.059525    8.539890
 C    7.887727   40.380783   10.088091
 C   -4.845701   -7.930780   -0.733407
 H   -3.608484   -7.609526    0.814793
 C   -5.027411   -6.097355   -2.188061
 H   -3.973776   -4.487835   -1.663263
 C   -2.197654    0.420877   -5.884096
 C   -1.807654   -1.303192   -4.125415
 C    4.849680   33.753189   13.480099
 C    5.239680   32.029125   15.238780
 H    7.455393   16.014074    5.566972
 C    8.814703   15.451392    6.972046
 C    9.202948   17.082005    8.719501
 H    8.502689   20.505156   10.092769
 C    9.573796   18.810940   10.379957
 C   -6.531771   13.639060   -1.025273
 H   -5.460664   11.944845   -0.738085
 C   -6.160922   15.367996    0.635183
 C   -5.772677   16.998610    2.382638
 H   -4.413367   16.435926    3.787712
 C   -5.313435    0.857004   -4.042159
 C   -5.684284    2.585940   -5.702615
 H   -4.613177    4.280158   -5.415426
 C   -4.925191   -0.773609   -2.294704
 H   -3.565880   -0.210926   -0.889630
 H    6.607905   32.660927   10.244313
 C    7.967216   33.223610   11.649388
 C    8.355461   31.592997   13.396843
 H    7.655202   28.169846   14.770110
 C    8.726310   29.864061   15.057299
 H   -5.133045   24.097372   -7.053432
 H    8.175072    8.352630   16.408115
 C    9.502608   11.049225   13.549324
 H   10.595123   11.376970   11.880448
 H   10.830960   12.457555   12.968399
 H   -7.788934   19.992445   -3.613715
 H   -7.553098   21.073030   -2.525764
 C   -6.460583   21.400776   -4.194641
 H   -8.400585   -4.848030    2.151577
 H   -8.636421   -3.767445    1.063627
 C   -7.308069   -5.175776    0.482702
 C   10.350096   37.625774    8.871983
 H   11.678447   36.217449    8.291057
 H   11.442611   37.298031    7.203106
 H    8.440414   38.157955   12.326667
 C    8.416540   39.825882   11.195685
 H    8.125813   41.266666    9.835515
 C   -5.374515   -7.375885   -1.841002
 H   -5.083787   -8.816666   -0.480831
 H   -5.398389   -5.707954   -2.971983
 C   -2.465591   -0.857004   -5.312524
 C   -2.853836    0.773608   -7.059979
 C   -2.094742   -2.585939   -3.652069
 C    5.136768   35.035942   13.006753
 C    5.507617   33.307003   14.667209
 C    5.895861   31.676392   16.414663
 H    9.003574   14.608990    6.575407
 C    9.470884   15.804124    8.147929
 C    9.860885   17.528193    9.906610
 H   10.017321   19.122786   11.158267
 H   -6.975295   13.327216   -1.803584
 C   -6.818859   14.921808   -0.551927
 C   -6.428859   16.645876    1.206754
 H   -5.961548   17.841011    2.779277
 C   -5.971372    1.303190   -5.229269
 C   -5.581372   -0.420876   -3.470588
 H   -6.127808    2.897782   -6.480926
 H   -5.114061   -1.616011   -1.898065
 C    8.623398   32.870876   12.825272
 H    8.156087   34.066010   11.252748
 C    9.013397   31.146809   14.583952
 H    9.169833   29.552216   15.835609
 H    8.934829   10.435921   13.101234
 H    8.985671   11.594385   14.133057
 C   10.516793   10.276915   14.365053
 C   -7.474767   22.173086   -5.010369
 H   -5.943645   20.855616   -4.778373
 H   -5.892803   22.014080   -3.746551
 C   -8.322254   -5.948086   -0.333027
 H   -6.740290   -5.789080    0.930790
 H   -6.791132   -4.630615   -0.101030
 H    9.833158   37.080616    9.455714
 H    9.782316   38.239082    8.423893
 C   11.364280   38.398087    9.687711
 H    9.022558   40.322369   11.730774
 H   -5.980533   -7.872372   -2.376090
 C   -3.409222   -1.716280   -5.947708
 C   -3.776159   -0.068146   -7.668970
 H   -2.664965    1.616010   -7.456619
 C   -3.004775   -3.410820   -4.284445
 H   -1.651219   -2.897785   -2.873758
 H    4.693244   35.347782   12.228442
 C    6.046801   35.860817   13.639129
 C    6.451248   34.166283   15.302392
 H    5.706991   30.833990   16.811302
 C    6.818185   32.518147   17.023655
 C   10.434167   14.921808    8.802757
 C   10.824167   16.645876   10.561439
 C   -7.782142   15.804124   -1.206755
 C   -7.392141   17.528193    0.551926
 C   -6.934655    0.420877   -5.884096
 C   -6.544654   -1.303192   -4.125415
 C    9.586680   33.753189   13.480099
 C    9.976681   32.029125   15.238780
 C   10.901154    9.004874   14.005833
 C   11.104449   10.835054   15.464228
 C   -8.062424   21.614946   -6.109544
 C   -7.859128   23.445126   -4.651149
 C   -8.706614   -7.220125    0.026193
 C   -8.909910   -5.389946   -1.432202
 C   11.951937   37.839947   10.786886
 C   11.748641   39.670128    9.328491
 C   -4.059819   -1.298325   -7.128270
 C   -3.682056   -2.992865   -5.401394
 H   -4.213146    0.210925   -8.465055
 H   -3.165849   -4.280155   -3.939258
 C    6.724082   35.442867   14.756079
 H    6.207875   36.730160   13.293941
 C    7.101845   33.748325   16.482952
 H    7.255172   32.239075   17.819736
 C   10.721255   13.639060    8.329411
 C   11.092104   15.367996    9.989867
 C   11.480349   16.998610   11.737322
 C   -8.438323   15.451392   -2.382638
 C   -8.050078   17.082005   -0.635183
 C   -7.679229   18.810940    1.025273
 C   -7.202591   -0.857004   -5.312524
 C   -7.590836    0.773608   -7.059979
 C   -6.831742   -2.585939   -3.652069
 C    9.873768   35.035942   13.006753
 C   10.244617   33.307003   14.667209
 C   10.632861   31.676392   16.414663
 H   10.540024    8.615476   13.217233
 C   11.777241    8.294219   14.765433
 H   10.905314   11.737165   15.695289
 C   11.958950   10.127645   16.220087
 C   -8.916924   22.322355   -6.865403
 H   -7.863289   20.712835   -6.340605
 C   -8.735214   24.155781   -5.410749
 H   -7.497998   23.834526   -3.862549
 C   -9.582702   -7.930780   -0.733407
 H   -8.345485   -7.609526    0.814793
 C   -9.764411   -6.097355   -2.188061
 H   -8.710776   -4.487835   -1.663263
 H   11.752802   36.937836   11.017946
 C   12.806437   38.547359   11.542745
 H   11.387510   40.059525    8.539890
 C   12.624727   40.380783   10.088091
 C   -5.033957   -2.183886   -7.798999
 C   -4.673700   -3.891079   -6.035642
 C    7.715726   36.341080   15.390326
 C    8.075983   34.633888   17.153683
 H   10.277732   13.327216    7.551100
 C   11.631289   12.814181    8.961786
 C   12.035735   14.508719   10.625050
 H   11.291478   17.841011   12.133961
 C   12.402672   16.156857   12.346312
 C   -9.360646   16.293144   -2.991628
 H   -8.249452   14.608990   -2.779277
 C   -8.993710   17.941280   -1.270366
 C   -8.589262   19.635820    0.392897
 H   -7.235705   19.122786    1.803584
 C   -8.146222   -1.716280   -5.947708
 C   -8.513159   -0.068146   -7.668970
 H   -7.401965    1.616010   -7.456619
 C   -7.741776   -3.410820   -4.284445
 H   -6.388219   -2.897785   -2.873758
 H    9.430244   35.347782   12.228442
 C   10.783801   35.860817   13.639129
 C   11.188248   34.166283   15.302392
 H   10.443991   30.833990   16.811302
 C   11.555185   32.518147   17.023655
 H   12.015326    7.408334   14.512856
 C   12.306054    8.849115   15.873028
 H   12.329928   10.517046   17.004009
 H   -9.287902   21.932955   -7.649325
 C   -9.264029   23.600885   -6.518344
 H   -8.973301   25.041666   -5.158173
 C  -10.111515   -7.375885   -1.841002
 H   -9.820787   -8.816666   -0.480831
 H  -10.135389   -5.707954   -2.971983
 H   13.177415   38.157955   12.326667
 C   13.153541   39.825882   11.195685
 H   12.862814   41.266666    9.835515
 N   -5.312533   -3.407251   -7.184397
 O   -5.578729   -1.889563   -8.842047
 O   -4.935669   -4.985943   -5.601584
 O    7.977695   37.435944   14.956268
 N    8.354559   35.857250   16.539082
 O    8.620754   34.339561   18.196732
 H   11.792362   11.944845    8.616599
 C   12.308569   13.232136   10.078736
 C   12.686332   14.926677   11.805612
 H   12.839660   16.435926   13.142395
 H   -9.797634   16.014074   -3.787712
 C   -9.644306   17.523325   -2.450927
 C   -9.266543   19.217865   -0.724052
 H   -8.750337   20.505156    0.738084
 C   -8.796820   -1.298325   -7.128270
 C   -8.419057   -2.992865   -5.401394
 H   -8.950147    0.210925   -8.465055
 H   -7.902850   -4.280155   -3.939258
 C   11.461082   35.442867   14.756079
 H   10.944876   36.730160   13.293941
 C   11.838845   33.748325   16.482952
 H   11.992173   32.239075   17.819736
 H   12.912072    8.352630   16.408115
 H   -9.870046   24.097372   -7.053432
 H  -10.717533   -7.872372   -2.376090
 H   13.759559   40.322369   11.730774
 C   -6.286198   -4.299625   -7.855128
 C    9.328224   36.749622   17.209812
 C   13.300214   12.333920   10.712984
 C   13.660471   14.041115   12.476342
 C  -10.618444   18.408886   -3.121658
 C  -10.258188   20.116079   -1.358300
 C   -9.770958   -2.183886   -7.798999
 C   -9.410701   -3.891079   -6.035642
 C   12.452726   36.341080   15.390326
 C   12.812984   34.633888   17.153683
 H   -6.705611   -4.848030   -7.203106
 H   -6.941447   -3.767445   -8.291058
 C   -5.613095   -5.175776   -8.871983
 C    8.655122   37.625774   18.226665
 H    9.983473   36.217449   17.645741
 H    9.747637   37.298031   16.557791
 O   13.562182   11.239058   10.278927
 N   13.939047   12.817750   11.861739
 O   14.205242   14.335438   13.519389
 O  -11.163217   18.114563   -4.164705
 N  -10.897020   19.632252   -2.507055
 O  -10.520157   21.210943   -0.924243
 N  -10.049534   -3.407251   -7.184397
 O  -10.315729   -1.889563   -8.842047
 O   -9.672669   -4.985943   -5.601584
 O   12.714695   37.435944   14.956268
 N   13.091559   35.857250   16.539082
 O   13.357756   34.339561   18.196732
 C   -6.627280   -5.948086   -9.687711
 H   -5.045316   -5.789080   -8.423893
 H   -5.096158   -4.630615   -9.455714
 H    8.138184   37.080616   18.810398
 H    8.087342   38.239082   17.778576
 C    9.669306   38.398087   19.042395
 C   14.912711   11.925376   12.532470
 C  -11.870686   20.524626   -3.177786
 C  -11.023198   -4.299625   -7.855128
 C   14.065224   36.749622   17.209812
 C   -7.011641   -7.220125   -9.328491
 C   -7.214936   -5.389946  -10.786886
 C   10.256962   37.839947   20.141569
 C   10.053667   39.670128   18.683174
 C   14.239609   11.049225   13.549324
 H   15.332125   11.376970   11.880448
 H   15.567961   12.457555   12.968399
 H  -12.525935   19.992445   -3.613715
 H  -12.290098   21.073030   -2.525764
 C  -11.197583   21.400776   -4.194641
 H  -11.442612   -4.848030   -7.203106
 H  -11.678448   -3.767445   -8.291058
 C  -10.350096   -5.175776   -8.871983
 C   13.392122   37.625774   18.226665
 H   14.720473   36.217449   17.645741
 H   14.484637   37.298031   16.557791
 C   -7.887728   -7.930780  -10.088091
 H   -6.650510   -7.609526   -8.539890
 C   -8.069437   -6.097355  -11.542745
 H   -7.015802   -4.487835  -11.017946
 H   10.057827   36.937836   20.372631
 C   11.111463   38.547359   20.897429
 H    9.692536   40.059525   17.894573
 C   10.929753   40.380783   19.442776
 H   13.671829   10.435921   13.101234
 H   13.722672   11.594385   14.133057
 C   15.253794   10.276915   14.365053
 C  -12.211767   22.173086   -5.010369
 H  -10.680645   20.855616   -4.778373
 H  -10.629804   22.014080   -3.746551
 C  -11.364281   -5.948086   -9.687711
 H   -9.782316   -5.789080   -8.423893
 H   -9.833158   -4.630615   -9.455714
 H   12.875184   37.080616   18.810398
 H   12.824343   38.239082   17.778576
 C   14.406306   38.398087   19.042395
 C   -8.416541   -7.375885  -11.195685
 H   -8.125814   -8.816666   -9.835515
 H   -8.440415   -5.707954  -12.326668
 H   11.482441   38.157955   21.681351
 C   11.458567   39.825882   20.550369
 H   11.167840   41.266666   19.190199
 C   15.638154    9.004874   14.005833
 C   15.841450   10.835054   15.464228
 C  -12.799424   21.614946   -6.109544
 C  -12.596128   23.445126   -4.651149
 C  -11.748641   -7.220125   -9.328491
 C  -11.951937   -5.389946  -10.786886
 C   14.993963   37.839947   20.141569
 C   14.790668   39.670128   18.683174
 H   -9.022559   -7.872372  -11.730774
 H   12.064585   40.322369   21.085457
 H   15.277023    8.615476   13.217233
 C   16.514238    8.294219   14.765433
 H   15.642315   11.737165   15.695289
 C   16.695948   10.127645   16.220087
 C  -13.653923   22.322355   -6.865403
 H  -12.600289   20.712835   -6.340605
 C  -13.472214   24.155781   -5.410749
 H  -12.234998   23.834526   -3.862549
 C  -12.624727   -7.930780  -10.088091
 H  -11.387511   -7.609526   -8.539890
 C  -12.806437   -6.097355  -11.542745
 H  -11.752803   -4.487835  -11.017946
 H   14.794828   36.937836   20.372631
 C   15.848462   38.547359   20.897429
 H   14.429537   40.059525   17.894573
 C   15.666753   40.380783   19.442776
 H   16.752325    7.408334   14.512856
 C   17.043053    8.849115   15.873028
 H   17.066927   10.517046   17.004009
 H  -14.024900   21.932955   -7.649325
 C  -14.001026   23.600885   -6.518344
 H  -13.710299   25.041666   -5.158173
 C  -13.153541   -7.375885  -11.195685
 H  -12.862814   -8.816666   -9.835515
 H  -13.177415   -5.707954  -12.326668
 H   16.219440   38.157955   21.681351
 C   16.195566   39.825882   20.550369
 H   15.904840   41.266666   19.190199
 H   17.649071    8.352630   16.408115
 H  -14.607044   24.097372   -7.053432
 H  -13.759559   -7.872372  -11.730774
 H   16.801584   40.322369   21.085457
