559
Properties=species:S:1:pos:R:3 pbc="F F F"
S       1.59000000       0.91798693       1.59500000 
S       1.59000000       0.91798693      -1.59500000 
S       4.77000000       0.91798693       1.59500000 
S       4.77000000       0.91798693      -1.59500000 
Mo       1.59000000       2.75396078       0.00000000 
S       3.18000000       3.67194771       1.59500000 
S       3.18000000       3.67194771      -1.59500000 
S       1.59000000       6.42590850       1.59500000 
S       1.59000000       6.42590850      -1.59500000 
S       7.95000000       0.91798693       1.59500000 
S       7.95000000       0.91798693      -1.59500000 
Mo       4.77000000       2.75396078       0.00000000 
S       6.36000000       3.67194771       1.59500000 
S       6.36000000       3.67194771      -1.59500000 
Mo       3.18000000       5.50792157       0.00000000 
S       4.77000000       6.42590850       1.59500000 
S       4.77000000       6.42590850      -1.59500000 
Mo       1.59000000       8.26188235       0.00000000 
S       3.18000000       9.17986928       1.59500000 
S       3.18000000       9.17986928      -1.59500000 
S       1.59000000      11.93383006       1.59500000 
S       1.59000000      11.93383006      -1.59500000 
S       0.00000000      14.68779085       1.59500000 
S       0.00000000      14.68779085      -1.59500000 
S      11.13000000       0.91798693       1.59500000 
S      11.13000000       0.91798693      -1.59500000 
Mo       7.95000000       2.75396078       0.00000000 
S       9.54000000       3.67194771       1.59500000 
S       9.54000000       3.67194771      -1.59500000 
Mo       6.36000000       5.50792157       0.00000000 
S       7.95000000       6.42590850       1.59500000 
S       7.95000000       6.42590850      -1.59500000 
Mo       4.77000000       8.26188235       0.00000000 
S       6.36000000       9.17986928       1.59500000 
S       6.36000000       9.17986928      -1.59500000 
Mo       3.18000000      11.01584314       0.00000000 
S       4.77000000      11.93383006       1.59500000 
S       4.77000000      11.93383006      -1.59500000 
Mo       1.59000000      13.76980392       0.00000000 
S       3.18000000      14.68779085       1.59500000 
S       3.18000000      14.68779085      -1.59500000 
S       1.59000000      17.44175163       1.59500000 
S       1.59000000      17.44175163      -1.59500000 
S       0.00000000      20.19571242       1.59500000 
S       0.00000000      20.19571242      -1.59500000 
S      14.31000000       0.91798693       1.59500000 
S      14.31000000       0.91798693      -1.59500000 
Mo      11.13000000       2.75396078       0.00000000 
S      12.72000000       3.67194771       1.59500000 
S      12.72000000       3.67194771      -1.59500000 
Mo       9.54000000       5.50792157       0.00000000 
S      11.13000000       6.42590850       1.59500000 
S      11.13000000       6.42590850      -1.59500000 
Mo       7.95000000       8.26188235       0.00000000 
S       9.54000000       9.17986928       1.59500000 
S       9.54000000       9.17986928      -1.59500000 
Mo       6.36000000      11.01584314       0.00000000 
S       7.95000000      11.93383006       1.59500000 
S       7.95000000      11.93383006      -1.59500000 
Mo       4.77000000      13.76980392       0.00000000 
S       6.36000000      14.68779085       1.59500000 
S       6.36000000      14.68779085      -1.59500000 
Mo       3.18000000      16.52376470       0.00000000 
S       4.77000000      17.44175163       1.59500000 
S       4.77000000      17.44175163      -1.59500000 
Mo       1.59000000      19.27772549       0.00000000 
S       3.18000000      20.19571242       1.59500000 
S       3.18000000      20.19571242      -1.59500000 
S       1.59000000      22.94967320       1.59500000 
S       1.59000000      22.94967320      -1.59500000 
S       0.00000000      25.70363398       1.59500000 
S       0.00000000      25.70363398      -1.59500000 
S      17.49000000       0.91798693       1.59500000 
S      17.49000000       0.91798693      -1.59500000 
Mo      14.31000000       2.75396078       0.00000000 
S      15.90000000       3.67194771       1.59500000 
S      15.90000000       3.67194771      -1.59500000 
Mo      12.72000000       5.50792157       0.00000000 
S      14.31000000       6.42590850       1.59500000 
S      14.31000000       6.42590850      -1.59500000 
Mo      11.13000000       8.26188235       0.00000000 
S      12.72000000       9.17986928       1.59500000 
S      12.72000000       9.17986928      -1.59500000 
Mo       9.54000000      11.01584314       0.00000000 
S      11.13000000      11.93383006       1.59500000 
S      11.13000000      11.93383006      -1.59500000 
Mo       7.95000000      13.76980392       0.00000000 
S       9.54000000      14.68779085       1.59500000 
S       9.54000000      14.68779085      -1.59500000 
Mo       6.36000000      16.52376470       0.00000000 
S       7.95000000      17.44175163       1.59500000 
S       7.95000000      17.44175163      -1.59500000 
Mo       4.77000000      19.27772549       0.00000000 
S       6.36000000      20.19571242       1.59500000 
S       6.36000000      20.19571242      -1.59500000 
Mo       3.18000000      22.03168627       0.00000000 
S       4.77000000      22.94967320       1.59500000 
S       4.77000000      22.94967320      -1.59500000 
Mo       1.59000000      24.78564706       0.00000000 
S       3.18000000      25.70363398       1.59500000 
S       3.18000000      25.70363398      -1.59500000 
S       1.59000000      28.45759477       1.59500000 
S       1.59000000      28.45759477      -1.59500000 
S      20.67000000       0.91798693       1.59500000 
S      20.67000000       0.91798693      -1.59500000 
Mo      17.49000000       2.75396078       0.00000000 
S      19.08000000       3.67194771       1.59500000 
S      19.08000000       3.67194771      -1.59500000 
Mo      15.90000000       5.50792157       0.00000000 
S      17.49000000       6.42590850       1.59500000 
S      17.49000000       6.42590850      -1.59500000 
Mo      14.31000000       8.26188235       0.00000000 
S      15.90000000       9.17986928       1.59500000 
S      15.90000000       9.17986928      -1.59500000 
Mo      12.72000000      11.01584314       0.00000000 
S      14.31000000      11.93383006       1.59500000 
S      14.31000000      11.93383006      -1.59500000 
Mo      11.13000000      13.76980392       0.00000000 
S      12.72000000      14.68779085       1.59500000 
S      12.72000000      14.68779085      -1.59500000 
Mo       9.54000000      16.52376470       0.00000000 
S      11.13000000      17.44175163       1.59500000 
S      11.13000000      17.44175163      -1.59500000 
Mo       7.95000000      19.27772549       0.00000000 
S       9.54000000      20.19571242       1.59500000 
S       9.54000000      20.19571242      -1.59500000 
Mo       6.36000000      22.03168627       0.00000000 
S       7.95000000      22.94967320       1.59500000 
S       7.95000000      22.94967320      -1.59500000 
Mo       4.77000000      24.78564706       0.00000000 
S       6.36000000      25.70363398       1.59500000 
S       6.36000000      25.70363398      -1.59500000 
Mo       3.18000000      27.53960784       0.00000000 
S       4.77000000      28.45759477       1.59500000 
S       4.77000000      28.45759477      -1.59500000 
Mo       1.59000000      30.29356862       0.00000000 
S       3.18000000      31.21155555       1.59500000 
S       3.18000000      31.21155555      -1.59500000 
S       1.59000000      33.96551634       1.59500000 
S       1.59000000      33.96551634      -1.59500000 
S       0.00000000      36.71947712       1.59500000 
S       0.00000000      36.71947712      -1.59500000 
S      23.85000000       0.91798693       1.59500000 
S      23.85000000       0.91798693      -1.59500000 
Mo      20.67000000       2.75396078       0.00000000 
S      22.26000000       3.67194771       1.59500000 
S      22.26000000       3.67194771      -1.59500000 
Mo      19.08000000       5.50792157       0.00000000 
S      20.67000000       6.42590850       1.59500000 
S      20.67000000       6.42590850      -1.59500000 
Mo      17.49000000       8.26188235       0.00000000 
S      19.08000000       9.17986928       1.59500000 
S      19.08000000       9.17986928      -1.59500000 
Mo      15.90000000      11.01584314       0.00000000 
S      17.49000000      11.93383006       1.59500000 
S      17.49000000      11.93383006      -1.59500000 
Mo      14.31000000      13.76980392       0.00000000 
S      15.90000000      14.68779085       1.59500000 
S      15.90000000      14.68779085      -1.59500000 
Mo      12.72000000      16.52376470       0.00000000 
S      14.31000000      17.44175163       1.59500000 
S      14.31000000      17.44175163      -1.59500000 
Mo      11.13000000      19.27772549       0.00000000 
S      12.72000000      20.19571242       1.59500000 
S      12.72000000      20.19571242      -1.59500000 
Mo       9.54000000      22.03168627       0.00000000 
S      11.13000000      22.94967320       1.59500000 
S      11.13000000      22.94967320      -1.59500000 
Mo       7.95000000      24.78564706       0.00000000 
S       9.54000000      25.70363398       1.59500000 
S       9.54000000      25.70363398      -1.59500000 
Mo       6.36000000      27.53960784       0.00000000 
S       7.95000000      28.45759477       1.59500000 
S       7.95000000      28.45759477      -1.59500000 
Mo       4.77000000      30.29356862       0.00000000 
S       6.36000000      31.21155555       1.59500000 
S       6.36000000      31.21155555      -1.59500000 
Mo       3.18000000      33.04752941       0.00000000 
S       4.77000000      33.96551634       1.59500000 
S       4.77000000      33.96551634      -1.59500000 
Mo       1.59000000      35.80149019       0.00000000 
S       3.18000000      36.71947712       1.59500000 
S       3.18000000      36.71947712      -1.59500000 
S       1.59000000      39.47343790       1.59500000 
S       1.59000000      39.47343790      -1.59500000 
S      27.03000000       0.91798693       1.59500000 
S      27.03000000       0.91798693      -1.59500000 
Mo      23.85000000       2.75396078       0.00000000 
S      25.44000000       3.67194771       1.59500000 
S      25.44000000       3.67194771      -1.59500000 
Mo      22.26000000       5.50792157       0.00000000 
S      23.85000000       6.42590850       1.59500000 
S      23.85000000       6.42590850      -1.59500000 
Mo      20.67000000       8.26188235       0.00000000 
S      22.26000000       9.17986928       1.59500000 
S      22.26000000       9.17986928      -1.59500000 
Mo      19.08000000      11.01584314       0.00000000 
S      20.67000000      11.93383006       1.59500000 
S      20.67000000      11.93383006      -1.59500000 
Mo      17.49000000      13.76980392       0.00000000 
S      19.08000000      14.68779085       1.59500000 
S      19.08000000      14.68779085      -1.59500000 
Mo      15.90000000      16.52376470       0.00000000 
S      17.49000000      17.44175163       1.59500000 
S      17.49000000      17.44175163      -1.59500000 
Mo      14.31000000      19.27772549       0.00000000 
S      15.90000000      20.19571242       1.59500000 
S      15.90000000      20.19571242      -1.59500000 
Mo      12.72000000      22.03168627       0.00000000 
S      14.31000000      22.94967320       1.59500000 
S      14.31000000      22.94967320      -1.59500000 
Mo      11.13000000      24.78564706       0.00000000 
S      12.72000000      25.70363398       1.59500000 
S      12.72000000      25.70363398      -1.59500000 
Mo       9.54000000      27.53960784       0.00000000 
S      11.13000000      28.45759477       1.59500000 
S      11.13000000      28.45759477      -1.59500000 
Mo       7.95000000      30.29356862       0.00000000 
S       9.54000000      31.21155555       1.59500000 
S       9.54000000      31.21155555      -1.59500000 
Mo       6.36000000      33.04752941       0.00000000 
S       7.95000000      33.96551634       1.59500000 
S       7.95000000      33.96551634      -1.59500000 
Mo       4.77000000      35.80149019       0.00000000 
S       6.36000000      36.71947712       1.59500000 
S       6.36000000      36.71947712      -1.59500000 
Mo       3.18000000      38.55545098       0.00000000 
S       4.77000000      39.47343790       1.59500000 
S       4.77000000      39.47343790      -1.59500000 
S      30.21000000       0.91798693       1.59500000 
S      30.21000000       0.91798693      -1.59500000 
Mo      27.03000000       2.75396078       0.00000000 
S      28.62000000       3.67194771       1.59500000 
S      28.62000000       3.67194771      -1.59500000 
Mo      25.44000000       5.50792157       0.00000000 
S      27.03000000       6.42590850       1.59500000 
S      27.03000000       6.42590850      -1.59500000 
Mo      23.85000000       8.26188235       0.00000000 
S      25.44000000       9.17986928       1.59500000 
S      25.44000000       9.17986928      -1.59500000 
Mo      22.26000000      11.01584314       0.00000000 
S      23.85000000      11.93383006       1.59500000 
S      23.85000000      11.93383006      -1.59500000 
Mo      20.67000000      13.76980392       0.00000000 
S      22.26000000      14.68779085       1.59500000 
S      22.26000000      14.68779085      -1.59500000 
Mo      19.08000000      16.52376470       0.00000000 
S      20.67000000      17.44175163       1.59500000 
S      20.67000000      17.44175163      -1.59500000 
Mo      17.49000000      19.27772549       0.00000000 
S      19.08000000      20.19571242       1.59500000 
S      19.08000000      20.19571242      -1.59500000 
Mo      15.90000000      22.03168627       0.00000000 
S      17.49000000      22.94967320       1.59500000 
S      17.49000000      22.94967320      -1.59500000 
Mo      14.31000000      24.78564706       0.00000000 
S      15.90000000      25.70363398       1.59500000 
S      15.90000000      25.70363398      -1.59500000 
Mo      12.72000000      27.53960784       0.00000000 
S      14.31000000      28.45759477       1.59500000 
S      14.31000000      28.45759477      -1.59500000 
Mo      11.13000000      30.29356862       0.00000000 
S      12.72000000      31.21155555       1.59500000 
S      12.72000000      31.21155555      -1.59500000 
Mo       9.54000000      33.04752941       0.00000000 
S      11.13000000      33.96551634       1.59500000 
S      11.13000000      33.96551634      -1.59500000 
Mo       7.95000000      35.80149019       0.00000000 
S       9.54000000      36.71947712       1.59500000 
S       9.54000000      36.71947712      -1.59500000 
Mo       6.36000000      38.55545098       0.00000000 
S       7.95000000      39.47343790       1.59500000 
S       7.95000000      39.47343790      -1.59500000 
S      33.39000000       0.91798693       1.59500000 
S      33.39000000       0.91798693      -1.59500000 
Mo      30.21000000       2.75396078       0.00000000 
S      31.80000000       3.67194771       1.59500000 
S      31.80000000       3.67194771      -1.59500000 
Mo      28.62000000       5.50792157       0.00000000 
S      30.21000000       6.42590850       1.59500000 
S      30.21000000       6.42590850      -1.59500000 
Mo      27.03000000       8.26188235       0.00000000 
S      28.62000000       9.17986928       1.59500000 
S      28.62000000       9.17986928      -1.59500000 
Mo      25.44000000      11.01584314       0.00000000 
S      27.03000000      11.93383006       1.59500000 
S      27.03000000      11.93383006      -1.59500000 
Mo      23.85000000      13.76980392       0.00000000 
S      25.44000000      14.68779085       1.59500000 
S      25.44000000      14.68779085      -1.59500000 
Mo      22.26000000      16.52376470       0.00000000 
S      23.85000000      17.44175163       1.59500000 
S      23.85000000      17.44175163      -1.59500000 
Mo      20.67000000      19.27772549       0.00000000 
S      22.26000000      20.19571242       1.59500000 
S      22.26000000      20.19571242      -1.59500000 
Mo      19.08000000      22.03168627       0.00000000 
S      20.67000000      22.94967320       1.59500000 
S      20.67000000      22.94967320      -1.59500000 
Mo      17.49000000      24.78564706       0.00000000 
S      19.08000000      25.70363398       1.59500000 
S      19.08000000      25.70363398      -1.59500000 
Mo      15.90000000      27.53960784       0.00000000 
S      17.49000000      28.45759477       1.59500000 
S      17.49000000      28.45759477      -1.59500000 
Mo      14.31000000      30.29356862       0.00000000 
S      15.90000000      31.21155555       1.59500000 
S      15.90000000      31.21155555      -1.59500000 
Mo      12.72000000      33.04752941       0.00000000 
S      14.31000000      33.96551634       1.59500000 
S      14.31000000      33.96551634      -1.59500000 
Mo      11.13000000      35.80149019       0.00000000 
S      12.72000000      36.71947712       1.59500000 
S      12.72000000      36.71947712      -1.59500000 
Mo       9.54000000      38.55545098       0.00000000 
S      11.13000000      39.47343790       1.59500000 
S      11.13000000      39.47343790      -1.59500000 
S      36.57000000       0.91798693       1.59500000 
S      36.57000000       0.91798693      -1.59500000 
Mo      33.39000000       2.75396078       0.00000000 
S      34.98000000       3.67194771       1.59500000 
S      34.98000000       3.67194771      -1.59500000 
Mo      31.80000000       5.50792157       0.00000000 
S      33.39000000       6.42590850       1.59500000 
S      33.39000000       6.42590850      -1.59500000 
Mo      30.21000000       8.26188235       0.00000000 
S      31.80000000       9.17986928       1.59500000 
S      31.80000000       9.17986928      -1.59500000 
Mo      28.62000000      11.01584314       0.00000000 
S      30.21000000      11.93383006       1.59500000 
S      30.21000000      11.93383006      -1.59500000 
Mo      27.03000000      13.76980392       0.00000000 
S      28.62000000      14.68779085       1.59500000 
S      28.62000000      14.68779085      -1.59500000 
Mo      25.44000000      16.52376470       0.00000000 
S      27.03000000      17.44175163       1.59500000 
S      27.03000000      17.44175163      -1.59500000 
Mo      23.85000000      19.27772549       0.00000000 
S      25.44000000      20.19571242       1.59500000 
S      25.44000000      20.19571242      -1.59500000 
Mo      22.26000000      22.03168627       0.00000000 
S      23.85000000      22.94967320       1.59500000 
S      23.85000000      22.94967320      -1.59500000 
Mo      20.67000000      24.78564706       0.00000000 
S      22.26000000      25.70363398       1.59500000 
S      22.26000000      25.70363398      -1.59500000 
Mo      19.08000000      27.53960784       0.00000000 
S      20.67000000      28.45759477       1.59500000 
S      20.67000000      28.45759477      -1.59500000 
Mo      17.49000000      30.29356862       0.00000000 
S      19.08000000      31.21155555       1.59500000 
S      19.08000000      31.21155555      -1.59500000 
Mo      15.90000000      33.04752941       0.00000000 
S      17.49000000      33.96551634       1.59500000 
S      17.49000000      33.96551634      -1.59500000 
Mo      14.31000000      35.80149019       0.00000000 
S      15.90000000      36.71947712       1.59500000 
S      15.90000000      36.71947712      -1.59500000 
Mo      12.72000000      38.55545098       0.00000000 
S      14.31000000      39.47343790       1.59500000 
S      14.31000000      39.47343790      -1.59500000 
S      39.75000000       0.91798693       1.59500000 
S      39.75000000       0.91798693      -1.59500000 
Mo      36.57000000       2.75396078       0.00000000 
S      38.16000000       3.67194771       1.59500000 
S      38.16000000       3.67194771      -1.59500000 
Mo      34.98000000       5.50792157       0.00000000 
S      36.57000000       6.42590850       1.59500000 
S      36.57000000       6.42590850      -1.59500000 
Mo      33.39000000       8.26188235       0.00000000 
S      34.98000000       9.17986928       1.59500000 
S      34.98000000       9.17986928      -1.59500000 
Mo      31.80000000      11.01584314       0.00000000 
S      33.39000000      11.93383006       1.59500000 
S      33.39000000      11.93383006      -1.59500000 
Mo      30.21000000      13.76980392       0.00000000 
S      31.80000000      14.68779085       1.59500000 
S      31.80000000      14.68779085      -1.59500000 
Mo      28.62000000      16.52376470       0.00000000 
S      30.21000000      17.44175163       1.59500000 
S      30.21000000      17.44175163      -1.59500000 
Mo      27.03000000      19.27772549       0.00000000 
S      28.62000000      20.19571242       1.59500000 
S      28.62000000      20.19571242      -1.59500000 
Mo      25.44000000      22.03168627       0.00000000 
S      27.03000000      22.94967320       1.59500000 
S      27.03000000      22.94967320      -1.59500000 
Mo      23.85000000      24.78564706       0.00000000 
S      25.44000000      25.70363398       1.59500000 
S      25.44000000      25.70363398      -1.59500000 
Mo      22.26000000      27.53960784       0.00000000 
S      23.85000000      28.45759477       1.59500000 
S      23.85000000      28.45759477      -1.59500000 
Mo      20.67000000      30.29356862       0.00000000 
S      22.26000000      31.21155555       1.59500000 
S      22.26000000      31.21155555      -1.59500000 
Mo      19.08000000      33.04752941       0.00000000 
S      20.67000000      33.96551634       1.59500000 
S      20.67000000      33.96551634      -1.59500000 
Mo      17.49000000      35.80149019       0.00000000 
S      19.08000000      36.71947712       1.59500000 
S      19.08000000      36.71947712      -1.59500000 
Mo      15.90000000      38.55545098       0.00000000 
S      17.49000000      39.47343790       1.59500000 
S      17.49000000      39.47343790      -1.59500000 
Mo      39.75000000       2.75396078       0.00000000 
Mo      38.16000000       5.50792157       0.00000000 
S      39.75000000       6.42590850       1.59500000 
S      39.75000000       6.42590850      -1.59500000 
Mo      36.57000000       8.26188235       0.00000000 
S      38.16000000       9.17986928       1.59500000 
S      38.16000000       9.17986928      -1.59500000 
Mo      34.98000000      11.01584314       0.00000000 
S      36.57000000      11.93383006       1.59500000 
S      36.57000000      11.93383006      -1.59500000 
Mo      33.39000000      13.76980392       0.00000000 
S      34.98000000      14.68779085       1.59500000 
S      34.98000000      14.68779085      -1.59500000 
Mo      31.80000000      16.52376470       0.00000000 
S      33.39000000      17.44175163       1.59500000 
S      33.39000000      17.44175163      -1.59500000 
Mo      30.21000000      19.27772549       0.00000000 
S      31.80000000      20.19571242       1.59500000 
S      31.80000000      20.19571242      -1.59500000 
Mo      28.62000000      22.03168627       0.00000000 
S      30.21000000      22.94967320       1.59500000 
S      30.21000000      22.94967320      -1.59500000 
Mo      27.03000000      24.78564706       0.00000000 
S      28.62000000      25.70363398       1.59500000 
S      28.62000000      25.70363398      -1.59500000 
Mo      25.44000000      27.53960784       0.00000000 
S      27.03000000      28.45759477       1.59500000 
S      27.03000000      28.45759477      -1.59500000 
Mo      23.85000000      30.29356862       0.00000000 
S      25.44000000      31.21155555       1.59500000 
S      25.44000000      31.21155555      -1.59500000 
Mo      22.26000000      33.04752941       0.00000000 
S      23.85000000      33.96551634       1.59500000 
S      23.85000000      33.96551634      -1.59500000 
Mo      20.67000000      35.80149019       0.00000000 
S      22.26000000      36.71947712       1.59500000 
S      22.26000000      36.71947712      -1.59500000 
Mo      19.08000000      38.55545098       0.00000000 
S      20.67000000      39.47343790       1.59500000 
S      20.67000000      39.47343790      -1.59500000 
Mo      39.75000000       8.26188235       0.00000000 
Mo      38.16000000      11.01584314       0.00000000 
S      39.75000000      11.93383006       1.59500000 
S      39.75000000      11.93383006      -1.59500000 
Mo      36.57000000      13.76980392       0.00000000 
S      38.16000000      14.68779085       1.59500000 
S      38.16000000      14.68779085      -1.59500000 
Mo      34.98000000      16.52376470       0.00000000 
S      36.57000000      17.44175163       1.59500000 
S      36.57000000      17.44175163      -1.59500000 
Mo      33.39000000      19.27772549       0.00000000 
S      34.98000000      20.19571242       1.59500000 
S      34.98000000      20.19571242      -1.59500000 
Mo      31.80000000      22.03168627       0.00000000 
S      33.39000000      22.94967320       1.59500000 
S      33.39000000      22.94967320      -1.59500000 
Mo      30.21000000      24.78564706       0.00000000 
S      31.80000000      25.70363398       1.59500000 
S      31.80000000      25.70363398      -1.59500000 
Mo      28.62000000      27.53960784       0.00000000 
S      30.21000000      28.45759477       1.59500000 
S      30.21000000      28.45759477      -1.59500000 
Mo      27.03000000      30.29356862       0.00000000 
S      28.62000000      31.21155555       1.59500000 
S      28.62000000      31.21155555      -1.59500000 
Mo      25.44000000      33.04752941       0.00000000 
S      27.03000000      33.96551634       1.59500000 
S      27.03000000      33.96551634      -1.59500000 
Mo      23.85000000      35.80149019       0.00000000 
S      25.44000000      36.71947712       1.59500000 
S      25.44000000      36.71947712      -1.59500000 
Mo      22.26000000      38.55545098       0.00000000 
S      23.85000000      39.47343790       1.59500000 
S      23.85000000      39.47343790      -1.59500000 
Mo      39.75000000      13.76980392       0.00000000 
Mo      38.16000000      16.52376470       0.00000000 
S      39.75000000      17.44175163       1.59500000 
S      39.75000000      17.44175163      -1.59500000 
Mo      36.57000000      19.27772549       0.00000000 
S      38.16000000      20.19571242       1.59500000 
S      38.16000000      20.19571242      -1.59500000 
Mo      34.98000000      22.03168627       0.00000000 
S      36.57000000      22.94967320       1.59500000 
S      36.57000000      22.94967320      -1.59500000 
Mo      33.39000000      24.78564706       0.00000000 
S      34.98000000      25.70363398       1.59500000 
S      34.98000000      25.70363398      -1.59500000 
Mo      31.80000000      27.53960784       0.00000000 
S      33.39000000      28.45759477       1.59500000 
S      33.39000000      28.45759477      -1.59500000 
Mo      30.21000000      30.29356862       0.00000000 
S      31.80000000      31.21155555       1.59500000 
S      31.80000000      31.21155555      -1.59500000 
Mo      28.62000000      33.04752941       0.00000000 
S      30.21000000      33.96551634       1.59500000 
S      30.21000000      33.96551634      -1.59500000 
Mo      27.03000000      35.80149019       0.00000000 
S      28.62000000      36.71947712       1.59500000 
S      28.62000000      36.71947712      -1.59500000 
Mo      25.44000000      38.55545098       0.00000000 
S      27.03000000      39.47343790       1.59500000 
S      27.03000000      39.47343790      -1.59500000 
Mo      39.75000000      19.27772549       0.00000000 
Mo      38.16000000      22.03168627       0.00000000 
S      39.75000000      22.94967320       1.59500000 
S      39.75000000      22.94967320      -1.59500000 
Mo      36.57000000      24.78564706       0.00000000 
S      38.16000000      25.70363398       1.59500000 
S      38.16000000      25.70363398      -1.59500000 
Mo      34.98000000      27.53960784       0.00000000 
S      36.57000000      28.45759477       1.59500000 
S      36.57000000      28.45759477      -1.59500000 
Mo      33.39000000      30.29356862       0.00000000 
S      34.98000000      31.21155555       1.59500000 
S      34.98000000      31.21155555      -1.59500000 
Mo      31.80000000      33.04752941       0.00000000 
S      33.39000000      33.96551634       1.59500000 
S      33.39000000      33.96551634      -1.59500000 
Mo      30.21000000      35.80149019       0.00000000 
S      31.80000000      36.71947712       1.59500000 
S      31.80000000      36.71947712      -1.59500000 
Mo      28.62000000      38.55545098       0.00000000 
S      30.21000000      39.47343790       1.59500000 
S      30.21000000      39.47343790      -1.59500000 
Mo      39.75000000      24.78564706       0.00000000 
Mo      38.16000000      27.53960784       0.00000000 
S      39.75000000      28.45759477       1.59500000 
S      39.75000000      28.45759477      -1.59500000 
Mo      36.57000000      30.29356862       0.00000000 
S      38.16000000      31.21155555       1.59500000 
S      38.16000000      31.21155555      -1.59500000 
Mo      34.98000000      33.04752941       0.00000000 
S      36.57000000      33.96551634       1.59500000 
S      36.57000000      33.96551634      -1.59500000 
Mo      33.39000000      35.80149019       0.00000000 
S      34.98000000      36.71947712       1.59500000 
S      34.98000000      36.71947712      -1.59500000 
Mo      31.80000000      38.55545098       0.00000000 
S      33.39000000      39.47343790       1.59500000 
S      33.39000000      39.47343790      -1.59500000 
Mo      39.75000000      30.29356862       0.00000000 
Mo      38.16000000      33.04752941       0.00000000 
S      39.75000000      33.96551634       1.59500000 
S      39.75000000      33.96551634      -1.59500000 
Mo      36.57000000      35.80149019       0.00000000 
S      38.16000000      36.71947712       1.59500000 
S      38.16000000      36.71947712      -1.59500000 
Mo      34.98000000      38.55545098       0.00000000 
S      36.57000000      39.47343790       1.59500000 
S      36.57000000      39.47343790      -1.59500000 
Mo      39.75000000      35.80149019       0.00000000 
Mo      38.16000000      38.55545098       0.00000000 
S      39.75000000      39.47343790       1.59500000 
S      39.75000000      39.47343790      -1.59500000 
