280
Properties=species:S:1:pos:R:3:initial_magmoms:R:1 pbc="F F F"
Pb       0.01496555       0.01496555       0.01496555       0.00000000 
Br       2.96300568       0.00020729       0.00020729       0.00000000 
Br       0.00020729       2.96300568       0.00020729       0.00000000 
Pb       0.01496555       5.90816847       0.01496555       0.00000000 
Br       2.96300568       5.89341021       0.00020729       0.00000000 
Br       0.00020729       8.85620860       0.00020729       0.00000000 
Pb       0.01496555      11.80137139       0.01496555       0.00000000 
Br       2.96300568      11.78661313       0.00020729       0.00000000 
Br       0.00020729      14.74941152       0.00020729       0.00000000 
Pb       0.01496555      17.69457431       0.01496555       0.00000000 
Br       2.96300568      17.67981605       0.00020729       0.00000000 
Br       0.00020729      20.64261444       0.00020729       0.00000000 
Pb       0.01496555      23.58777723       0.01496555       0.00000000 
Br       2.96300568      23.57301897       0.00020729       0.00000000 
Br       0.00020729      26.53581736       0.00020729       0.00000000 
Pb       0.01496555      29.48098015       0.01496555       0.00000000 
Br       2.96300568      29.46622189       0.00020729       0.00000000 
Br       0.00020729      32.42902028       0.00020729       0.00000000 
Pb       0.01496555      35.37418307       0.01496555       0.00000000 
Br       2.96300568      35.35942481       0.00020729       0.00000000 
Br       0.00020729      38.32222320       0.00020729       0.00000000 
Pb       0.01496555      41.26738599       0.01496555       0.00000000 
Br       2.96300568      41.25262773       0.00020729       0.00000000 
Br       0.00020729      44.21542612       0.00020729       0.00000000 
Pb       0.01496555      47.16058891       0.01496555       0.00000000 
Br       2.96300568      47.14583065       0.00020729       0.00000000 
Br       0.00020729      50.10862904       0.00020729       0.00000000 
Pb       0.01496555      53.05379183       0.01496555       0.00000000 
Br       2.96300568      53.03903357       0.00020729       0.00000000 
Pb       5.90816847       0.01496555       0.01496555       0.00000000 
Br       8.85620860       0.00020729       0.00020729       0.00000000 
Br       5.89341021       2.96300568       0.00020729       0.00000000 
Pb       5.90816847       5.90816847       0.01496555       0.00000000 
Br       8.85620860       5.89341021       0.00020729       0.00000000 
Br       5.89341021       8.85620860       0.00020729       0.00000000 
Pb       5.90816847      11.80137139       0.01496555       0.00000000 
Br       8.85620860      11.78661313       0.00020729       0.00000000 
Br       5.89341021      14.74941152       0.00020729       0.00000000 
Pb       5.90816847      17.69457431       0.01496555       0.00000000 
Br       8.85620860      17.67981605       0.00020729       0.00000000 
Br       5.89341021      20.64261444       0.00020729       0.00000000 
Pb       5.90816847      23.58777723       0.01496555       0.00000000 
Br       8.85620860      23.57301897       0.00020729       0.00000000 
Br       5.89341021      26.53581736       0.00020729       0.00000000 
Pb       5.90816847      29.48098015       0.01496555       0.00000000 
Br       8.85620860      29.46622189       0.00020729       0.00000000 
Br       5.89341021      32.42902028       0.00020729       0.00000000 
Pb       5.90816847      35.37418307       0.01496555       0.00000000 
Br       8.85620860      35.35942481       0.00020729       0.00000000 
Br       5.89341021      38.32222320       0.00020729       0.00000000 
Pb       5.90816847      41.26738599       0.01496555       0.00000000 
Br       8.85620860      41.25262773       0.00020729       0.00000000 
Br       5.89341021      44.21542612       0.00020729       0.00000000 
Pb       5.90816847      47.16058891       0.01496555       0.00000000 
Br       8.85620860      47.14583065       0.00020729       0.00000000 
Br       5.89341021      50.10862904       0.00020729       0.00000000 
Pb       5.90816847      53.05379183       0.01496555       0.00000000 
Br       8.85620860      53.03903357       0.00020729       0.00000000 
Pb      11.80137139       0.01496555       0.01496555       0.00000000 
Br      14.74941152       0.00020729       0.00020729       0.00000000 
Br      11.78661313       2.96300568       0.00020729       0.00000000 
Pb      11.80137139       5.90816847       0.01496555       0.00000000 
Br      14.74941152       5.89341021       0.00020729       0.00000000 
Br      11.78661313       8.85620860       0.00020729       0.00000000 
Pb      11.80137139      11.80137139       0.01496555       0.00000000 
Br      14.74941152      11.78661313       0.00020729       0.00000000 
Br      11.78661313      14.74941152       0.00020729       0.00000000 
Pb      11.80137139      17.69457431       0.01496555       0.00000000 
Br      14.74941152      17.67981605       0.00020729       0.00000000 
Br      11.78661313      20.64261444       0.00020729       0.00000000 
Pb      11.80137139      23.58777723       0.01496555       0.00000000 
Br      14.74941152      23.57301897       0.00020729       0.00000000 
Br      11.78661313      26.53581736       0.00020729       0.00000000 
Pb      11.80137139      29.48098015       0.01496555       0.00000000 
Br      14.74941152      29.46622189       0.00020729       0.00000000 
Br      11.78661313      32.42902028       0.00020729       0.00000000 
Pb      11.80137139      35.37418307       0.01496555       0.00000000 
Br      14.74941152      35.35942481       0.00020729       0.00000000 
Br      11.78661313      38.32222320       0.00020729       0.00000000 
Pb      11.80137139      41.26738599       0.01496555       0.00000000 
Br      14.74941152      41.25262773       0.00020729       0.00000000 
Br      11.78661313      44.21542612       0.00020729       0.00000000 
Pb      11.80137139      47.16058891       0.01496555       0.00000000 
Br      14.74941152      47.14583065       0.00020729       0.00000000 
Br      11.78661313      50.10862904       0.00020729       0.00000000 
Pb      11.80137139      53.05379183       0.01496555       0.00000000 
Br      14.74941152      53.03903357       0.00020729       0.00000000 
Pb      17.69457431       0.01496555       0.01496555       0.00000000 
Br      20.64261444       0.00020729       0.00020729       0.00000000 
Br      17.67981605       2.96300568       0.00020729       0.00000000 
Pb      17.69457431       5.90816847       0.01496555       0.00000000 
Br      20.64261444       5.89341021       0.00020729       0.00000000 
Br      17.67981605       8.85620860       0.00020729       0.00000000 
Pb      17.69457431      11.80137139       0.01496555       0.00000000 
Br      20.64261444      11.78661313       0.00020729       0.00000000 
Br      17.67981605      14.74941152       0.00020729       0.00000000 
Pb      17.69457431      17.69457431       0.01496555       0.00000000 
Br      20.64261444      17.67981605       0.00020729       0.00000000 
Br      17.67981605      20.64261444       0.00020729       0.00000000 
Pb      17.69457431      23.58777723       0.01496555       0.00000000 
Br      20.64261444      23.57301897       0.00020729       0.00000000 
Br      17.67981605      26.53581736       0.00020729       0.00000000 
Pb      17.69457431      29.48098015       0.01496555       0.00000000 
Br      20.64261444      29.46622189       0.00020729       0.00000000 
Br      17.67981605      32.42902028       0.00020729       0.00000000 
Pb      17.69457431      35.37418307       0.01496555       0.00000000 
Br      20.64261444      35.35942481       0.00020729       0.00000000 
Br      17.67981605      38.32222320       0.00020729       0.00000000 
Pb      17.69457431      41.26738599       0.01496555       0.00000000 
Br      20.64261444      41.25262773       0.00020729       0.00000000 
Br      17.67981605      44.21542612       0.00020729       0.00000000 
Pb      17.69457431      47.16058891       0.01496555       0.00000000 
Br      20.64261444      47.14583065       0.00020729       0.00000000 
Br      17.67981605      50.10862904       0.00020729       0.00000000 
Pb      17.69457431      53.05379183       0.01496555       0.00000000 
Br      20.64261444      53.03903357       0.00020729       0.00000000 
Pb      23.58777723       0.01496555       0.01496555       0.00000000 
Br      26.53581736       0.00020729       0.00020729       0.00000000 
Br      23.57301897       2.96300568       0.00020729       0.00000000 
Pb      23.58777723       5.90816847       0.01496555       0.00000000 
Br      26.53581736       5.89341021       0.00020729       0.00000000 
Br      23.57301897       8.85620860       0.00020729       0.00000000 
Pb      23.58777723      11.80137139       0.01496555       0.00000000 
Br      26.53581736      11.78661313       0.00020729       0.00000000 
Br      23.57301897      14.74941152       0.00020729       0.00000000 
Pb      23.58777723      17.69457431       0.01496555       0.00000000 
Br      26.53581736      17.67981605       0.00020729       0.00000000 
Br      23.57301897      20.64261444       0.00020729       0.00000000 
Pb      23.58777723      23.58777723       0.01496555       0.00000000 
Br      26.53581736      23.57301897       0.00020729       0.00000000 
Br      23.57301897      26.53581736       0.00020729       0.00000000 
Pb      23.58777723      29.48098015       0.01496555       0.00000000 
Br      26.53581736      29.46622189       0.00020729       0.00000000 
Br      23.57301897      32.42902028       0.00020729       0.00000000 
Pb      23.58777723      35.37418307       0.01496555       0.00000000 
Br      26.53581736      35.35942481       0.00020729       0.00000000 
Br      23.57301897      38.32222320       0.00020729       0.00000000 
Pb      23.58777723      41.26738599       0.01496555       0.00000000 
Br      26.53581736      41.25262773       0.00020729       0.00000000 
Br      23.57301897      44.21542612       0.00020729       0.00000000 
Pb      23.58777723      47.16058891       0.01496555       0.00000000 
Br      26.53581736      47.14583065       0.00020729       0.00000000 
Br      23.57301897      50.10862904       0.00020729       0.00000000 
Pb      23.58777723      53.05379183       0.01496555       0.00000000 
Br      26.53581736      53.03903357       0.00020729       0.00000000 
Pb      29.48098015       0.01496555       0.01496555       0.00000000 
Br      32.42902028       0.00020729       0.00020729       0.00000000 
Br      29.46622189       2.96300568       0.00020729       0.00000000 
Pb      29.48098015       5.90816847       0.01496555       0.00000000 
Br      32.42902028       5.89341021       0.00020729       0.00000000 
Br      29.46622189       8.85620860       0.00020729       0.00000000 
Pb      29.48098015      11.80137139       0.01496555       0.00000000 
Br      32.42902028      11.78661313       0.00020729       0.00000000 
Br      29.46622189      14.74941152       0.00020729       0.00000000 
Pb      29.48098015      17.69457431       0.01496555       0.00000000 
Br      32.42902028      17.67981605       0.00020729       0.00000000 
Br      29.46622189      20.64261444       0.00020729       0.00000000 
Pb      29.48098015      23.58777723       0.01496555       0.00000000 
Br      32.42902028      23.57301897       0.00020729       0.00000000 
Br      29.46622189      26.53581736       0.00020729       0.00000000 
Pb      29.48098015      29.48098015       0.01496555       0.00000000 
Br      32.42902028      29.46622189       0.00020729       0.00000000 
Br      29.46622189      32.42902028       0.00020729       0.00000000 
Pb      29.48098015      35.37418307       0.01496555       0.00000000 
Br      32.42902028      35.35942481       0.00020729       0.00000000 
Br      29.46622189      38.32222320       0.00020729       0.00000000 
Pb      29.48098015      41.26738599       0.01496555       0.00000000 
Br      32.42902028      41.25262773       0.00020729       0.00000000 
Br      29.46622189      44.21542612       0.00020729       0.00000000 
Pb      29.48098015      47.16058891       0.01496555       0.00000000 
Br      32.42902028      47.14583065       0.00020729       0.00000000 
Br      29.46622189      50.10862904       0.00020729       0.00000000 
Pb      29.48098015      53.05379183       0.01496555       0.00000000 
Br      32.42902028      53.03903357       0.00020729       0.00000000 
Pb      35.37418307       0.01496555       0.01496555       0.00000000 
Br      38.32222320       0.00020729       0.00020729       0.00000000 
Br      35.35942481       2.96300568       0.00020729       0.00000000 
Pb      35.37418307       5.90816847       0.01496555       0.00000000 
Br      38.32222320       5.89341021       0.00020729       0.00000000 
Br      35.35942481       8.85620860       0.00020729       0.00000000 
Pb      35.37418307      11.80137139       0.01496555       0.00000000 
Br      38.32222320      11.78661313       0.00020729       0.00000000 
Br      35.35942481      14.74941152       0.00020729       0.00000000 
Pb      35.37418307      17.69457431       0.01496555       0.00000000 
Br      38.32222320      17.67981605       0.00020729       0.00000000 
Br      35.35942481      20.64261444       0.00020729       0.00000000 
Pb      35.37418307      23.58777723       0.01496555       0.00000000 
Br      38.32222320      23.57301897       0.00020729       0.00000000 
Br      35.35942481      26.53581736       0.00020729       0.00000000 
Pb      35.37418307      29.48098015       0.01496555       0.00000000 
Br      38.32222320      29.46622189       0.00020729       0.00000000 
Br      35.35942481      32.42902028       0.00020729       0.00000000 
Pb      35.37418307      35.37418307       0.01496555       0.00000000 
Br      38.32222320      35.35942481       0.00020729       0.00000000 
Br      35.35942481      38.32222320       0.00020729       0.00000000 
Pb      35.37418307      41.26738599       0.01496555       0.00000000 
Br      38.32222320      41.25262773       0.00020729       0.00000000 
Br      35.35942481      44.21542612       0.00020729       0.00000000 
Pb      35.37418307      47.16058891       0.01496555       0.00000000 
Br      38.32222320      47.14583065       0.00020729       0.00000000 
Br      35.35942481      50.10862904       0.00020729       0.00000000 
Pb      35.37418307      53.05379183       0.01496555       0.00000000 
Br      38.32222320      53.03903357       0.00020729       0.00000000 
Pb      41.26738599       0.01496555       0.01496555       0.00000000 
Br      44.21542612       0.00020729       0.00020729       0.00000000 
Br      41.25262773       2.96300568       0.00020729       0.00000000 
Pb      41.26738599       5.90816847       0.01496555       0.00000000 
Br      44.21542612       5.89341021       0.00020729       0.00000000 
Br      41.25262773       8.85620860       0.00020729       0.00000000 
Pb      41.26738599      11.80137139       0.01496555       0.00000000 
Br      44.21542612      11.78661313       0.00020729       0.00000000 
Br      41.25262773      14.74941152       0.00020729       0.00000000 
Pb      41.26738599      17.69457431       0.01496555       0.00000000 
Br      44.21542612      17.67981605       0.00020729       0.00000000 
Br      41.25262773      20.64261444       0.00020729       0.00000000 
Pb      41.26738599      23.58777723       0.01496555       0.00000000 
Br      44.21542612      23.57301897       0.00020729       0.00000000 
Br      41.25262773      26.53581736       0.00020729       0.00000000 
Pb      41.26738599      29.48098015       0.01496555       0.00000000 
Br      44.21542612      29.46622189       0.00020729       0.00000000 
Br      41.25262773      32.42902028       0.00020729       0.00000000 
Pb      41.26738599      35.37418307       0.01496555       0.00000000 
Br      44.21542612      35.35942481       0.00020729       0.00000000 
Br      41.25262773      38.32222320       0.00020729       0.00000000 
Pb      41.26738599      41.26738599       0.01496555       0.00000000 
Br      44.21542612      41.25262773       0.00020729       0.00000000 
Br      41.25262773      44.21542612       0.00020729       0.00000000 
Pb      41.26738599      47.16058891       0.01496555       0.00000000 
Br      44.21542612      47.14583065       0.00020729       0.00000000 
Br      41.25262773      50.10862904       0.00020729       0.00000000 
Pb      41.26738599      53.05379183       0.01496555       0.00000000 
Br      44.21542612      53.03903357       0.00020729       0.00000000 
Pb      47.16058891       0.01496555       0.01496555       0.00000000 
Br      50.10862904       0.00020729       0.00020729       0.00000000 
Br      47.14583065       2.96300568       0.00020729       0.00000000 
Pb      47.16058891       5.90816847       0.01496555       0.00000000 
Br      50.10862904       5.89341021       0.00020729       0.00000000 
Br      47.14583065       8.85620860       0.00020729       0.00000000 
Pb      47.16058891      11.80137139       0.01496555       0.00000000 
Br      50.10862904      11.78661313       0.00020729       0.00000000 
Br      47.14583065      14.74941152       0.00020729       0.00000000 
Pb      47.16058891      17.69457431       0.01496555       0.00000000 
Br      50.10862904      17.67981605       0.00020729       0.00000000 
Br      47.14583065      20.64261444       0.00020729       0.00000000 
Pb      47.16058891      23.58777723       0.01496555       0.00000000 
Br      50.10862904      23.57301897       0.00020729       0.00000000 
Br      47.14583065      26.53581736       0.00020729       0.00000000 
Pb      47.16058891      29.48098015       0.01496555       0.00000000 
Br      50.10862904      29.46622189       0.00020729       0.00000000 
Br      47.14583065      32.42902028       0.00020729       0.00000000 
Pb      47.16058891      35.37418307       0.01496555       0.00000000 
Br      50.10862904      35.35942481       0.00020729       0.00000000 
Br      47.14583065      38.32222320       0.00020729       0.00000000 
Pb      47.16058891      41.26738599       0.01496555       0.00000000 
Br      50.10862904      41.25262773       0.00020729       0.00000000 
Br      47.14583065      44.21542612       0.00020729       0.00000000 
Pb      47.16058891      47.16058891       0.01496555       0.00000000 
Br      50.10862904      47.14583065       0.00020729       0.00000000 
Br      47.14583065      50.10862904       0.00020729       0.00000000 
Pb      47.16058891      53.05379183       0.01496555       0.00000000 
Br      50.10862904      53.03903357       0.00020729       0.00000000 
Pb      53.05379183       0.01496555       0.01496555       0.00000000 
Br      53.03903357       2.96300568       0.00020729       0.00000000 
Pb      53.05379183       5.90816847       0.01496555       0.00000000 
Br      53.03903357       8.85620860       0.00020729       0.00000000 
Pb      53.05379183      11.80137139       0.01496555       0.00000000 
Br      53.03903357      14.74941152       0.00020729       0.00000000 
Pb      53.05379183      17.69457431       0.01496555       0.00000000 
Br      53.03903357      20.64261444       0.00020729       0.00000000 
Pb      53.05379183      23.58777723       0.01496555       0.00000000 
Br      53.03903357      26.53581736       0.00020729       0.00000000 
Pb      53.05379183      29.48098015       0.01496555       0.00000000 
Br      53.03903357      32.42902028       0.00020729       0.00000000 
Pb      53.05379183      35.37418307       0.01496555       0.00000000 
Br      53.03903357      38.32222320       0.00020729       0.00000000 
Pb      53.05379183      41.26738599       0.01496555       0.00000000 
Br      53.03903357      44.21542612       0.00020729       0.00000000 
Pb      53.05379183      47.16058891       0.01496555       0.00000000 
Br      53.03903357      50.10862904       0.00020729       0.00000000 
Pb      53.05379183      53.05379183       0.01496555       0.00000000 
